[General]
network = Kite
sim-time-limit = 1000s
