[General]
network = Line64
eventlog-file = ${resultdir}/Line64.elog
experiment-label = Line64
sim-time-limit = 1000s
record-eventlog = true