[General]
network = Line256
eventlog-file = ${resultdir}/Line256.elog
experiment-label = Line256
sim-time-limit = 1000s
record-eventlog = true