[General]
network = Line128
eventlog-file = ${resultdir}/Line128.elog
experiment-label = Line128
sim-time-limit = 1000s
record-eventlog = true