[General]
network = Line4
eventlog-file = ${resultdir}/Line4.elog
experiment-label = Line4
sim-time-limit = 1000s
record-eventlog = true
