[General]
network = Line16
eventlog-file = ${resultdir}/Line16.elog
experiment-label = Line16
sim-time-limit = 1000s
record-eventlog = true