[General]
network = Line32
eventlog-file = ${resultdir}/Line32.elog
experiment-label = Line32
sim-time-limit = 1000s
record-eventlog = true