[General]
network = Line8
eventlog-file = ${resultdir}/Line8.elog
experiment-label = Line8
sim-time-limit = 1800s
record-eventlog = true