[General]
network = Line2
eventlog-file = ${resultdir}/Line2.elog
experiment-label = Line2
sim-time-limit = 1800s
record-eventlog = true
