[General]
network = Office
sim-time-limit = 3600s
