[General]
network = ReverseLine32
eventlog-file = ${resultdir}/RLine32.elog
experiment-label = RLine32
sim-time-limit = 1000s
record-eventlog = true