[General]
network = ReverseLine4
eventlog-file = ${resultdir}/RLine4.elog
experiment-label = RLine4
sim-time-limit = 1000s
record-eventlog = true