[General]
network = ReverseLine16
eventlog-file = ${resultdir}/RLine16.elog
experiment-label = RLine16
sim-time-limit = 1000s
record-eventlog = true