[General]
network = ReverseLine256
eventlog-file = ${resultdir}/RLine256.elog
experiment-label = RLine256
sim-time-limit = 1000s
record-eventlog = true