[General]
network = ReverseLine64
eventlog-file = ${resultdir}/RLine64.elog
experiment-label = RLine64
sim-time-limit = 1000s
record-eventlog = true