[General]
network = ReverseLine8
eventlog-file = ${resultdir}/RLine8.elog
experiment-label = RLine8
sim-time-limit = 1000s
record-eventlog = true