[General]
network = ReverseLine128
eventlog-file = ${resultdir}/RLine128.elog
experiment-label = RLine128
sim-time-limit = 1000s
record-eventlog = true