[General]
network = SimpleDiamond
sim-time-limit = 1000s
