[General]
network = SimpleDiamond
sim-time-limit = 1800s
