[General]
network = SimReal2018RTSS
eventlog-file = ${resultdir}/${configname}-${iterationvarsf}-${repetition}.elog
experiment-label = SimRealRTSS2018
record-eventlog = true
sim-time-limit = 1000s
