[General]
network = Star16
eventlog-file = ${resultdir}/Star16.elog
experiment-label = Star16
sim-time-limit = 1000s
record-eventlog = true