[General]
network = Star8
eventlog-file = ${resultdir}/Star8.elog
experiment-label = Star8
sim-time-limit = 1000s
record-eventlog = true