[General]
network = Star32
eventlog-file = ${resultdir}/Star32.elog
experiment-label = Star32
sim-time-limit = 1000s
record-eventlog = true