[General]
network = Star4
eventlog-file = ${resultdir}/Star4.elog
experiment-label = Star4
sim-time-limit = 1000s
record-eventlog = true