[General]
network = Star64
eventlog-file = ${resultdir}/Star64.elog
experiment-label = Star64
sim-time-limit = 1000s
record-eventlog = true