[General]
network = Star256
eventlog-file = ${resultdir}/Star256.elog
experiment-label = Star256
sim-time-limit = 1000s
record-eventlog = true