[General]
network = Star128
eventlog-file = ${resultdir}/Star128.elog
experiment-label = Star128
sim-time-limit = 1000s
record-eventlog = true